25
	Energy:       3.3201493
C         -2.65885       -1.31121       -0.00172
C         -1.46661       -0.37687       -0.18118
H         -2.71491       -1.66837        1.04856
H         -2.57214       -2.18477       -0.68212
H         -3.59572       -0.76526       -0.24159
C         -0.14408       -1.08545        0.13598
H         -1.59328        0.49674        0.49498
H         -1.45130       -0.01440       -1.23249
C          1.03711       -0.12489       -0.04366
H         -0.02015       -1.95653       -0.54524
H         -0.16366       -1.45270        1.18635
C          2.37216       -0.81289        0.26023
H          0.90874        0.74191        0.64162
H          1.05010        0.24681       -1.09213
C          3.53628        0.15837        0.08434
H          2.51440       -1.67465       -0.42787
H          2.37206       -1.18805        1.30697
H          3.56960        0.53590       -0.96017
H          4.49291       -0.35927        0.30625
H          3.42818        1.01903        0.77871
C          1.70397        2.40013        0.04179
H          2.77397        2.40013        0.04179
H          1.34730        3.37090        0.31620
H          1.34730        1.67710        0.74530
H          1.34730        2.15239       -0.93612
