# freq hf/cc-pvdz geom=connectivity opt=maxcyc=500

Title

0 1
 C                  0.00000000    0.79605400    0.00000000
 O                  1.10576200    1.15150900    0.00000000
 Cl                -0.46800200   -0.90692800    0.00000000
 H                 -0.89005300    1.42938300    0.00000000

 1 2 2.0 3 1.0 4 1.0
 2
 3
 4

