# opt=maxcyc=500 freq hf/cc-pvtz geom=connectivity

Title

0 1
 C                  0.00000000    0.79255500    0.00000000
 O                  1.10164000    1.14832400    0.00000000
 Cl                -0.46673800   -0.90399500    0.00000000
 H                 -0.87856800    1.42599000    0.00000000

 1 2 3.0 3 1.0 4 1.0
 2
 3
 4

