#am1 opt

 Title

0 1
C  
C   1 B1
H   1 B2 2 A2
H   1 B3 2 A3 3 D3
H   1 B4 2 A4 3 D4
C   2 B5 1 A5 3 D5
H   2 B6 1 A6 3 D6
H   6 B7 2 A7 1 D7
H   6 B8 2 A8 1 D8
Variables:
B1        1.49293
B2        1.09424
A2      110.83176
B3        1.09473
A3      109.88083
D3      240.92157
B4        1.09436
A4      111.02528
D4      121.83324
B5        1.33845
A5      123.36176
D5      295.41885
B6        1.08757
A6      117.30036
D6      115.48785
B7        1.08576
A7      121.56871
D7        0.21139
B8        1.08569
A8      120.83049
D8      180.02814
