#n AM1 Opt

 Title

0 1
C  
C   1 B1
H   1 B2 2 A2
H   1 B3 2 A3 3 D3
H   1 B4 2 A4 3 D4
C   2 B5 1 A5 3 D5
H   2 B6 1 A6 3 D6
C   6 B7 2 A7 1 D7
H   6 B8 2 A8 1 D8
C   8 B9 6 A9 2 D9
H   8 B10 6 A10 2 D10
H   10 B11 8 A11 6 D11
H   10 B12 8 A12 6 D12
Variables:
B1        1.49358
B2        1.09414
A2      110.62100
B3        1.09476
A3      109.87070
D3      240.92439
B4        1.09450
A4      111.28233
D4      121.80192
B5        1.34141
A5      122.96861
D5      286.79711
B6        1.08726
A6      116.59660
D6      106.79869
B7        1.44234
A7      122.81528
D7      180.13000
B8        1.08826
A8      119.59253
D8        0.57435
B9        1.33848
A9      122.96316
D9      181.92314
B10        1.08785
A10      117.96776
D10        1.93671
B11        1.08510
A11      122.19178
D11        0.22641
B12        1.08531
A12      120.44486
D12      180.02957


