#n HF/cc-pvdz Opt=(MaxCyc=2000)

butane_3.log

0 1
C  
C   1 B1
H   1 B2 2 A2
H   1 B3 2 A3 3 D3
H   1 B4 2 A4 3 D4
C   2 B5 1 A5 3 D5
H   2 B6 1 A6 3 D6
H   2 B7 1 A7 3 D7
C   6 B8 2 A8 1 D8
H   6 B9 2 A9 1 D9
H   6 B10 2 A10 1 D10
H   9 B11 6 A11 2 D11
H   9 B12 6 A12 2 D12
H   9 B13 6 A13 2 D13
Variables:
B1        1.52034
B2        1.09469
A2      110.99779
B3        1.09448
A3      110.26266
D3      240.26269
B4        1.09469
A4      111.00428
D4      120.51849
B5        1.52736
A5      111.49427
D5      299.68442
B6        1.09628
A6      109.15587
D6      178.12532
B7        1.09624
A7      109.15173
D7       61.25267
B8        1.52033
A8      111.49413
D8      179.89490
B9        1.09625
A9      109.87236
D9       58.74701
B10        1.09626
A10      109.86415
D10      301.04345
B11        1.09469
A11      110.99871
D11      299.68277
B12        1.09448
A12      110.26307
D12      179.94483
B13        1.09470
A13      111.00413
D13       60.20089


