%chk=ch3ooch3_rigid_scan.chk
# scan rhf/cc-pvdz  geom=connectivity

Title Card Required

0 1
 O              
 O                  1            B1
 C                  2            B2    1            A1
 H                  3            B3    2            A2    1            D1    0
 H                  3            B4    2            A3    1            D2    0
 H                  3            B5    2            A4    1            D3    0
 C                  1            B6    2            A5    3            D4    0
 H                  7            B7    1            A6    2            D5    0
 H                  7            B8    1            A7    2            D6    0
 H                  7            B9    1            A8    2            D7    0

   B1             1.39478632
   B2             1.39575078
   B3             1.08851464
   B4             1.09123825
   B5             1.09123147
   B6             1.39575148
   B7             1.09124909
   B8             1.08850651
   B9             1.09122688
   A1           106.22301080
   A2           105.63096214
   A3           110.87809894
   A4           110.88461684
   A5           106.22192748
   A6           110.88912534
   A7           105.62291934
   A8           110.88320651
   D1           179.98881072
   D2           -61.02879690
   D3            61.01495001
   D4          -179.93193824  72 5.0
   D5            61.02253684
   D6           179.99143398
   D7           -61.02689631

 1 2 1.0 7 1.0
 2 3 1.0
 3 4 1.0 5 1.0 6 1.0
 4
 5
 6
 7 8 1.0 9 1.0 10 1.0
 8
 9
 10

