#scan hf/cc-pvdz geom=connectivity

 Title

0 1
 C
 O,1,B1
 H,1,B2,2,A2
 H,1,B3,2,A3,3,D3,0
 H,1,B4,2,A4,3,D4,0
 O,2,B5,1,A5,3,D5,0
 C,6,B6,2,A6,1,D6,0
 H,7,B7,6,A7,2,D7,0
 H,7,B8,6,A8,2,D8,0
 H,7,B9,6,A9,2,D9,0
Variables:
 A3   110.89113447
 D3   -118.97425105
 B4   1.09128368
 A4   110.89114094
 D4   118.9740164
 B5   1.39485874
 A5   106.23248752
 D5   -179.99888997
 B6   1.39568686
 A6   106.23248965
 D6   -179.97639422
 B7   1.09128366
 A7   110.89113025
 D7   -61.02475443
 B8   1.08853788
 A8   105.62519475
 D8   -179.99876691
 B9   1.09128388
 A9   110.89113901
 D9   61.0269761 

m=connectivity
 1 
 2 6 1.0
 3
 4
 5
 6 7 1.0
 7 
 8
 9
 10

D 1 2 6 7 S 72 5.000000

