# scan hf/cc-pvdz geom=connectivity opt=maxcyc=500

Title

0 1
 O                  0.00000000    0.70078800    0.00000000
 O                  0.00000000   -0.70078800    0.00000000
 H                  0.93080900    0.87722900    0.00000000
 H                 -0.93080900   -0.87722900    0.00000000

 1 3 1.0
 2 4 1.0
 3
 4

